RUNSPEC
TITLE
ECL 5-SPOT 60x60

-- PATHS
-- '$ECLINC' '../../../../data/SPE10/spe10_layer21/include/' /
-- /


-- xxxxxxxxxxxxxxxxxxxxxxxxxxxxxxxxxxxxxxxxxxxxxxxxxxxx
DIMENS
60 60 1 /

-- ____________________________________________________
OIL
WATER
-- IMPES: def. solution

-- ____________________________________________________
METRIC
-- unit specification

EQLDIMS
  /

-- ____________________________________________________
TABDIMS
--  1)  2)  3)  4)  5) 6)
	1   1   20  50  1  20 /
-- Describes size of saturation and PVT tables,
-- also the # of fluids-in-place regions
-- 1) # of sat tables entered (def. 1)
-- 2) # of PVT tables entered (def. 1)
-- 3) max # of sat nodes in any sat table (def. 20)
-- 4) max # of pressure nodes in table (def. 20)
-- 5) max # of FIP regions (def. 1)
-- 6) max # of Rs nodes in live oil PVT table (def. 20)

-- ____________________________________________________
WELLDIMS
-- 1) 2) 3) 4)
   5  100  2  5  /
-- 1) max # of wells in model (def. 0)
-- 2) max # of connections per well (def. 0)
-- 3) max # of groups in model (def. 0)
-- 4) max # of wells in any one group (def. 0)

WSEGDIMS
    5  200  50  5 /

-- xxxxxxxxxxxxxxxxxxxxxxxxxxxxxxxxxxxxxxxxxxxxxxxxxxxx
START
1 'FEB' 2015 /


-- ____________________________________________________
UNIFOUT
UNIFIN

-- xxxxxxxxxxxxxxxxxxxxxxxxxxxxxxxxxxxxxxxxxxxxxxxxxxxx
GRID
INIT
-- GRIDFILE
-- 2 /
-- Contains GRID, PROPS and REGIONS summary of data
-- Request init and grid file, necessary for
-- post processing of the simulation with floviz

-- ____________________________________________________
-- RPTGRID orig
-- 0 1 1 1 1 1 0 0 1 1 0 1 1 0 1 1 1 /
-- RPTGRID -- commented out
-- 1 1 1 1 1 1 0 0 1 1 0 1 1 0 1 1 1 /
-- RPTGRID
-- DX DY DZ TRANX TRANY TRANZ NNC ALLNNC FAULTS /
-- Output of DX, DY, DZ, PERMX, PERMY, PERMZ,
-- MULTZ, PORO and TOPS data is requested, and
-- of the calculated pore volumes and X, Y and
-- Z transmissibilities

-- ____________________________________________________
-- Size of cells in X direction
DX
3600*24 /

-- Size of cells in Y direction
DY
3600*24 /

-- Size of cells in Z direction
DZ
3600*24/

TOPS
3600*1700/

-- ____________________________________________________
-- PERMX
INCLUDE
'../../../../data/SPE10/spe10_layer21_ensemble/include/permx_01_lyr_21X.INC' /
-- '$ECLINC/permx_01_lyr_21X.INC' /
-- 'permporo_lyr21/permx_21_lyr.in' /

-- ____________________________________________________
-- PERMY
INCLUDE
'../../../../data/SPE10/spe10_layer21_ensemble/include/permy_01_lyr_21X.INC' /
-- '$ECLINC/permy_01_lyr_21X.INC' /
-- 'permporo_lyr21/permy_21_lyr.in' /

-- ____________________________________________________
-- PERMZ
INCLUDE
'../../../../data/SPE10/spe10_layer21_ensemble/include/permz_01_lyr_21X.INC' /
--'$ECLINC/permz_01_lyr_21X.INC' /
--'permporo_lyr21/permz_21_lyr.in' /

-- ____________________________________________________
-- PORO
INCLUDE
'../../../../data/SPE10/spe10_layer21_ensemble/include/poro_01_lyr_21X.INC' /
-- '$ECLINC/poro_01_lyr_21X.INC' /
--'permporo_lyr21/poro_21_lyr.in' /

-- xxxxxxxxxxxxxxxxxxxxxxxxxxxxxxxxxxxxxxxxxxxxxxxxxxxx
PROPS

-- ____________________________________________________
-- PVT

INCLUDE
'../../../../data/SPE10/spe10_layer21_ensemble/include/ECL_5SPOT_PROPS_PVDO_MULT_MRST.INC' /
-- '$ECLINC/ECL_5SPOT_PROPS_PVDO_MULT_MRST.INC' /

-- xxxxxxxxxxxxxxxxxxxxxxxxxxxxxxxxxxxxxxxxxxxxxxxxxxxx
-- PVT

-- ____________________________________________________

-- ____________________________________________________
PVTW
-- PREF   BREF   COMP         VISC  VISCOSIBILITY
273.1832  1.029  4.599848e-5  0.31  0.0 
/



-- ____________________________________________________
ROCK
-- PREF    ROCKCOMPR.
1.000272   4.4088E-5 /

DENSITY
-- OIL      WATER      GAS  
-- (ALL@SURF.CONDS.)
786.5064    1037.836   0.9697576 /

-- xxxxxxxxxxxxxxxxxxxxxxxxxxxxxxxxxxxxxxxxxxxxxxxxxxxx
-- SCAL


INCLUDE
$SWOFFILE
/


-- ____________________________________________________
RPTPROPS
1  1  1  0  1  1  1  1 /
-- OUTPUT CONTROLS FOR PROPS DATA
-- Activated for SOF3, SWFN, SGFN, 
-- PVTW, PVDG, DENSITY AND ROCK keywords

-- xxxxxxxxxxxxxxxxxxxxxxxxxxxxxxxxxxxxxxxxxxxxxxxxxxxx
REGIONS

SATNUM
3600*1 /

-- xxxxxxxxxxxxxxxxxxxxxxxxxxxxxxxxxxxxxxxxxxxxxxxxxxxx
SOLUTION
-- initial state of solution variables

-- ____________________________________________________
EQUIL      
-- Data for initialising fluids to potential equilibrium
-- DATUM  DATUM OWC   OWC   GOC   GOC  RSVD  RVVD  SOLN
-- DEPTH  PRESS DEPTH PCOW  DEPTH PCOG TABLE TABLE METH
    1700  170   2200  0     0     0     0     0    0
--    1)  2)    3)    4)    5)    6)    7)    8)   9)
/
-- 1) Datum depth
-- 2) Pressure at datum depth
-- 3) Depth of water oil contact, if no water 
--    initially present it can be below reservoir
-- 4) Oil-water capillary pressure at the water contact
-- 5) Depth of the gas-oil contact
-- 6) Gas-oil capillary pressure at the gas-oil contact
-- 7) Integer selecting the type of 
--    initialization for live black oil
-- 8) Integer selecting the type of initialization 
--    for black oil runs with wet gas
-- 9) Integer (N) defining the accuracy of 
--    the initial fluids in place calculation.

-- ____________________________________________________
-- RPTSOL
-- 0 0 1 /

-- 1: PRESSURE: Output of initial oil pressures

-- xxxxxxxxxxxxxxxxxxxxxxxxxxxxxxxxxxxxxxxxxxxxxxxxxxxx
SUMMARY
SEPARATE
RUNSUM
-- RPTSMRY
-- 1 /

SUMTHIN
50 /

-- ____________________________________________________
-- PRESSURE
FPR          Field pressure
FPRH         Field reservoir pressure (hydrocarbon?)
FPRP         Field pressure weighted by pore volume

-- ____________________________________________________
-- PORE VOLUME
FRPV         Pore Volume at Reservoir
-- FOPV         Pore Volume containing Oil
FHPV         Pore volume containing hydrocardon
-- FORMW        Total stock tank oil produced by water influx

-- ____________________________________________________
-- INIT VOLUME
FGIP         Gas init in place
FGIPG        Gas init in place (gas phase)
FGIPL        Gas init in place (liquid phase)
FOIP         Oil init in place
FOIPG        Oil init in place (gas phase)
FOIPL        Oil init in place (liquid phase)
FWIP         Water initially in place

-- ____________________________________________________
-- CURRENT CPU USAGE IN SECONDS
TCPU         
PERFORMA

-- ____________________________________________________
-- FIELD RATES / CUMULATIVE
FWCT         Field water cut
FOE          Recovery factor (Field oil recovery):
--           (OIP(initial) - OIP(now)) / OIP(initial)
FGPR
FOPR
FWPR
FLPR
FGIR

FGPT         Gas Production Total (Cumoil)
FOPT         Oil Production Total (Cumoil)
FWPT         Water Production Total (Cumwat)
FLPT         Liquid Production Total (Cumwat)
FWIT         Water Injection Total (Cumwat)

-- ____________________________________________________
-- WELL RATES

WOPR         Well oil production rate
INJ1         -- Fill in for RSM file
PROD1
PROD2
PROD3
PROD4
/
 
WWPR         Well water production rate
INJ1         -- Fill in for RSM file
PROD1
PROD2
PROD3
PROD4
/
 
WLPR         Well liquid production rate
INJ1         -- Fill in for RSM file
PROD1
PROD2
PROD3
PROD4
/
 
WWIR         Well water injection rate
INJ1
/

WOPT         Well oil production rate
INJ1         -- Fill in for RSM file
PROD1
PROD2
PROD3
PROD4
/
 
WWPT         Well water production rate
INJ1         -- Fill in for RSM file
PROD1
PROD2
PROD3
PROD4
/
 
WLPT         Well liquid production rate
INJ1         -- Fill in for RSM file
PROD1
PROD2
PROD3
PROD4
/
 
WWIT         Well water injection rate
INJ1
/


-- ____________________________________________________
-- WELL BOTTOM-HOLE PRESSURE
WBHP
INJ1
PROD1
PROD2
PROD3
PROD4
/

-- ____________________________________________________
-- WELL WATER CUT
WWCT
INJ1
PROD1
PROD2
PROD3
PROD4
/

-- ____________________________________________________
-- PRODUCTIVITY INDEX OF WELLS PREFERRED PHASE
WPI
INJ1
PROD1
PROD2
PROD3
PROD4
/

-- ____________________________________________________
-- WELL CONNECTION FACTORS
-- INCLUDE
-- ECL_5SPOT_CTFAC.INC /
CTFAC
* /
/

-- xxxxxxxxxxxxxxxxxxxxxxxxxxxxxxxxxxxxxxxxxxxxxxxxxxxx
SCHEDULE
-- CONTROLS ON OUTPUT AT EACH REPORT TIME

-- ____________________________________________________
-- RPTSCHED
---- 1 2 3 4 5 6 7 8 9 10 11 12 13 14 15
--   0 0 1 1 0 0 2 2 2 0  0  2  0  1  0
--   0 0 0 0 0 0 0 0 0 0  0  0  0  0  0
--   0 0 0 0 0 0 0 0 1 0  0  0  0  0  0 /

-- 1: PRESSURE: Output of grid block pressures
-- 14: WELSPECS

-- RPTSCHED
-- 1 1 1 1 1 0 0 0 1 0 0 2 0 1 2 0 0
-- 0 0 0 0 0 0 0 0 0 0 0 0 0 0 0 0 0
-- 0 0 0 0 0 0 0 0 0 0 0 0 0 0 0 0 /


-- ____________________________________________________
-- REQUEST RESTART FILE
RPTRST    
'BASIC=2'
/


-- ____________________________________________________
WELSPECS
-- 1)   2)   3)   4)   5)     6)
   INJ1    G1   30   30    1715   WAT /
   PROD1   G2    6   6    1715   OIL /
   PROD2   G2   55   6    1715   OIL /
   PROD3   G2    6   55   1715   OIL /
   PROD4   G2   55   55   1715   OIL /
/

-- 1) Well name
-- 2) Name of group to which well belongs
-- 3) I-location of well head or heel (x)
-- 4) J-location of well head or heel (y)
-- 5) Reference depth for bottom hole pressure
-- 6) Preferred phase for the well

-- ____________________________________________________
COMPDAT
-- 1)     2)  3) 4) 5)  6)    7)  8)  9)      10-13) 14)
   INJ1   30  30 1  1   OPEN  1   1*  0.1905  4*     1*  /
   PROD1  6   6  1  1   OPEN  1   1*  0.1905  4*     1*  /
   PROD2  55  6  1  1   OPEN  1   1*  0.1905  4*     1*  /
   PROD3  6   55 1  1   OPEN  1   1*  0.1905  4*     1*  /
   PROD4  55  55 1  1   OPEN  1   1*  0.1905  4*     1*  /
/

-- 1) Well name
-- 2) I-location of connecting grid blocks
-- 3) J-location of connecting grid blocks
-- 4) K-location of upper connecting grid blocks
-- 5) K-location of lower connecting grid blocks
-- 6) Open/shut flag connection
-- 7) Sat table number for connection rel-perms
-- 8) Transmissibility factor for the connection
-- 9) Wellbore diameter at the connection 
--    (needed for well PI calculation);
--    def.: 1 ft = 0.3048 m  UNITS: m (METRIC)
--    ignored of not required. Required if 8) 
--    is zero(0.0). ft. def.: Undefined.
--    MLO: 0.1905m
-- 14) Eq. wellbore radius, UNITS: m (METRIC)


-- ____________________________________________________
TUNING  
-- min/max timestep (3 sections)
-- 0.1  30  /
1*  1*  /
-- (1,1) TSINIT Max lngth next time step
-- (1,2) TSMAXZ Max lngth time steps after the next
-- 5*  0.1  /
/
-- (2,1) TRGTTE Target time truncation error
-- (2,2) TRGCNV Target non-linear convergence error
-- (2,3) TRGMBE Target material balance error
-- (2,4) TRGLCV Target linear convergence error
-- (2,5) XXXTTE Maximum time truncation error
-- (2,6) XXXCNV Maximum non-linear convergence error
2*   100  /
-- (3,1) NEWTMX Max # of Newton iters in a time step
-- (3,2) NEWTMN Min # of Newton iters in a time step
-- (3,3) LITMAX Max # of linear iters in a Newton 
-- iter (def. 25)

-- ____________________________________________________


-- 16 years
-- 16*365 /
-- 80*73 /

-- 12 years
-- 60*73 / 

-- ____________________________________________________
WCONPROD
-- 1)     2)    3)   4)  5)  6)  7)  8)  9)
   PROD1  OPEN  BHP  1*  1*  1*  1*  1*  $P1BHP1  /
   PROD2  OPEN  BHP  1*  1*  1*  1*  1*  $P2BHP1  /
   PROD3  OPEN  BHP  1*  1*  1*  1*  1*  $P3BHP1  /
   PROD4  OPEN  BHP  1*  1*  1*  1*  1*  $P4BHP1  /
/

-- ____________________________________________________
WCONINJE
-- 1)     2)     3)    4)    5)        6)  7) 
   INJ1   WATER  OPEN  BHP   1*        1*  $I1BHP1  /
/

-- 8 years
TSTEP
8*73 /

-- ____________________________________________________
WCONPROD
-- 1)     2)    3)   4)  5)  6)  7)  8)  9)
   PROD1  OPEN  BHP  1*  1*  1*  1*  1*  $P1BHP2  /
   PROD2  OPEN  BHP  1*  1*  1*  1*  1*  $P2BHP2  /
   PROD3  OPEN  BHP  1*  1*  1*  1*  1*  $P3BHP2  /
   PROD4  OPEN  BHP  1*  1*  1*  1*  1*  $P4BHP2  /
/

-- ____________________________________________________
WCONINJE
-- 1)     2)     3)    4)    5)        6)  7) 
   INJ1   WATER  OPEN  BHP   1*        1*  $I1BHP2  /
/

TSTEP
8*73 /

-- ____________________________________________________
WCONPROD
-- 1)     2)    3)   4)  5)  6)  7)  8)  9)
   PROD1  OPEN  BHP  1*  1*  1*  1*  1*  $P1BHP3  /
   PROD2  OPEN  BHP  1*  1*  1*  1*  1*  $P2BHP3  /
   PROD3  OPEN  BHP  1*  1*  1*  1*  1*  $P3BHP3  /
   PROD4  OPEN  BHP  1*  1*  1*  1*  1*  $P4BHP3  /
/

-- ____________________________________________________
WCONINJE
-- 1)     2)     3)    4)    5)        6)  7) 
   INJ1   WATER  OPEN  BHP   1*        1*  $I1BHP3  /
/

TSTEP
8*73 /

-- ____________________________________________________
WCONPROD
-- 1)     2)    3)   4)  5)  6)  7)  8)  9)
   PROD1  OPEN  BHP  1*  1*  1*  1*  1*  $P1BHP4  /
   PROD2  OPEN  BHP  1*  1*  1*  1*  1*  $P2BHP4  /
   PROD3  OPEN  BHP  1*  1*  1*  1*  1*  $P3BHP4  /
   PROD4  OPEN  BHP  1*  1*  1*  1*  1*  $P4BHP4  /
/

-- ____________________________________________________
WCONINJE
-- 1)     2)     3)    4)    5)        6)  7) 
   INJ1   WATER  OPEN  BHP   1*        1*  $I1BHP4  /
/

TSTEP
8*73 /

-- ____________________________________________________
WCONPROD
-- 1)     2)    3)   4)  5)  6)  7)  8)  9)
   PROD1  OPEN  BHP  1*  1*  1*  1*  1*  $P1BHP5  /
   PROD2  OPEN  BHP  1*  1*  1*  1*  1*  $P2BHP5  /
   PROD3  OPEN  BHP  1*  1*  1*  1*  1*  $P3BHP5  /
   PROD4  OPEN  BHP  1*  1*  1*  1*  1*  $P4BHP5  /
/

-- ____________________________________________________
WCONINJE
-- 1)     2)     3)    4)    5)        6)  7) 
   INJ1   WATER  OPEN  BHP   1*        1*  $I1BHP5  /
/

TSTEP
8*73 /

-- 1 day
-- 1 /

-- ____________________________________________________
END
